LAMMPS (29 Nov 2010)
Processor partition = 0
# Fe eam

units         metal

atom_style    atomic
boundary      p p p
neighbor      2.0 bin
neigh_modify  every 1 delay 0 check yes
atom_modify   map array sort 0 0.0
variable      u uloop 2
read_data     begin.dat
  orthogonal box = (0 0 0) to (44.2102 48.7292 2.46119)
  462 atoms
  462 velocities

pair_style    eam/fs
pair_coeff    * * Fe_mm.eam.fs Fe

timestep      0.001

fix           1 all neb 1.0

thermo        1000

dump          myDump all xyz 1000 dump.xyz.$u
dump          myDump all xyz 1000 dump.xyz.1

min_style     quickmin
#minimize      1.0e-6 1.0e-6 100 1000

neb           1.0e-6 20000 20000 1000 end.dat
Step Temp E_pair E_mol TotEng Press
0            0   -1898.9027            0   -1898.9027    21263.008
Averages over the last 11 of 21 rows, steps 10000 to 20000:
Temp E_pair E_mol TotEng Press
8.00396e-06 -1898.91 0 -1898.91 21226.3
Loop time of 51.6988 on 1 procs for 20000 steps with 462 atoms

Minimization stats:
  Stopping criterion = max iterations
  Energy initial, next-to-last, final =
  Force two-norm initial, final = 0.0778308 0.0217231
  Force max component initial, final = 0.00825582 0.00166622
  Final line search alpha, max atom move = 0 0
  Iterations, force evaluations = 20000 20000

Pair  time (%) = 49.5059 (95.7583)
Neigh time (%) = 0 (0)
Comm  time (%) = 1.01553 (1.96433)
Outpt time (%) = 0.0199759 (0.038639)
Other time (%) = 1.15742 (2.23877)

Step Temp E_pair E_mol TotEng Press
20000            0   -1898.9093            0   -1898.9093    21205.908
Averages over the last 11 of 21 rows, steps 30000 to 40000:
Temp E_pair E_mol TotEng Press
1.34636e-06 -1898.91 0 -1898.91 21193.7
Loop time of 50.5499 on 1 procs for 20000 steps with 462 atoms

Minimization stats:
  Stopping criterion = max iterations
  Energy initial, next-to-last, final =
  Force two-norm initial, final = 0.0217231 0.0110672
  Force max component initial, final = 0.00166622 0.000886878
  Final line search alpha, max atom move = 0 0
  Iterations, force evaluations = 20000 20000

Pair  time (%) = 97.9471 (193.763)
Neigh time (%) = 0 (0)
Comm  time (%) = 1.95822 (3.87383)
Outpt time (%) = 0.039813 (0.0787599)
Other time (%) = -49.3952 (-97.7158)
